5
Coordinates from ORCA-job calc
  C   4.29183357167260      3.65882289959825     -0.00166929645157
  H   4.65508150573983      2.63143526734314     -0.00075565785692
  H   4.65602074503107      4.17385473107839      0.88688008047716
  H   4.65404287076494      4.17105769202290     -0.89269941936952
  H   3.20212130679156      3.65882940995732     -0.00075570679914
