5
Coordinates from ORCA-job calc
  C   4.24772225104004      3.78360164105030     -0.00197463256740
  H   4.74762741180878      2.36935598837560      0.00000924336839
  H   4.65615581293473      4.22559238584561      0.91669874419773
  H   4.65439228925778      4.22238519772736     -0.92296529180124
  H   3.15320223495863      3.69306478700105     -0.00076806319747
