4
Coordinates from ORCA-job calc
  N   1.08765460112317     -0.33970074509211     -0.00977254550274
  H   2.00787099417267      0.05911301792486      0.00668985977620
  H   0.58933473667835     -0.48723421168821      0.84827941391780
  H   0.66556966802581     -0.59199805114453     -0.88403671819126
