23
CalcUS
C -3.0687 -2.2854 0.0
C -1.6735 -2.2854 0.0
C -0.976 -1.0777 0.0
C -1.6736 0.1309 -0.0012
C -3.0685 0.1308 -0.0017
C -3.7661 -1.0774 -0.0007
H -3.6184 -3.2377 0.0004
H -1.124 -3.2379 0.0013
H 0.1237 -1.0776 0.0006
H -1.1234 1.083 -0.0013
H -4.8657 -1.0772 -0.0009
I -4.1189 1.9492 -0.0035
C -4.6436 2.8569 -1.8231
C -3.7718 3.763 -2.4274
C -5.8636 2.5538 -2.4275
C -4.1202 4.3665 -3.6356
H -2.8104 4.0024 -1.9503
C -6.2118 3.1565 -3.6365
H -6.5507 1.8395 -1.9514
C -5.3405 4.0629 -4.2406
H -3.4334 5.0812 -4.1117
H -7.1736 2.9171 -4.1131
H -5.615 4.5387 -5.1932
