8

He       0.000000      0.000000     -0.696394
S        0.000000      0.000000      1.317606
O        1.367073      0.000000      1.800940
O       -0.683537      1.183920      1.800940
C       -0.857485     -1.485207      1.923939
H       -0.340826     -2.380088      1.558606
H       -1.890804     -1.485207      1.558605
H       -0.857486     -1.485207      3.019939
