15

He       0.000000      0.000000     -0.696394
C        0.000000      0.000000      1.075606
C        0.000000      0.000000      3.847967
C        0.000000     -1.200468      1.768697
C        0.000000      1.200467      1.768696
C        0.000000      1.200468      3.154877
C        0.000000     -1.200467      3.154877
H        0.000000      2.149631      1.220696
H        0.000000      2.149632      3.702877
H        0.000000     -2.149630      3.702878
H        0.000000      0.000000      4.943967
C        0.000000     -2.526353      1.003197
H        1.033319     -2.842741      0.820530
H       -0.516660     -2.395300      0.045541
H       -0.516660     -3.290181      1.595519
