12

He       0.000000      0.000000     -0.696394
C        0.000000      0.000000      1.075606
C        0.000000      0.000000      3.847967
C        0.000000     -1.200468      1.768697
C        0.000000      1.200467      1.768696
C        0.000000      1.200468      3.154877
C        0.000000     -1.200467      3.154877
H        0.000000     -2.131970      1.230894
H        0.000000      2.131969      1.230893
H        0.000000      2.131970      3.692680
H        0.000000     -2.131969      3.692681
H        0.000000      0.000000      4.923574
