5
Coordinates from ORCA-job calc
  C   4.29183357167314      3.65882289959748     -0.00166929645160
  H   4.65508150573979      2.63143526734257     -0.00075565785692
  H   4.65602074503060      4.17385473107882      0.88688008047695
  H   4.65404287076451      4.17105769202332     -0.89269941936932
  H   3.20212130679195      3.65882940995780     -0.00075570679912
