energy: -18.778137607124 gnorm: 0.000597330718 xtb: 6.5.1 (bb5769e)
 OpenBabel01092309483D

 14 13  0  0  0  0  0  0  0  0999 V2000
   -1.6819    0.1073   -0.1500 C   0  0  0  0  0  0  0  0  0  0  0  0
   -1.3807    1.3490    0.1938 C   0  0  0  0  0  0  0  0  0  0  0  0
   -2.1161    2.1251    0.0941 H   0  0  0  0  0  0  0  0  0  0  0  0
   -0.4164    1.6413    0.5669 H   0  0  0  0  0  0  0  0  0  0  0  0
   -0.9115   -1.0048   -0.0894 O   0  0  0  0  0  0  0  0  0  0  0  0
    0.3903   -0.8798    0.4502 C   0  0  0  0  0  0  0  0  0  0  0  0
    1.3366   -0.1275   -0.4406 C   0  0  0  0  0  0  0  0  0  0  0  0
    2.3151    0.6419   -0.0041 C   0  0  0  0  0  0  0  0  0  0  0  0
    2.4877    0.7988    1.0488 H   0  0  0  0  0  0  0  0  0  0  0  0
    2.9896    1.1411   -0.6780 H   0  0  0  0  0  0  0  0  0  0  0  0
    1.1702   -0.2766   -1.4988 H   0  0  0  0  0  0  0  0  0  0  0  0
    0.7392   -1.9147    0.5527 H   0  0  0  0  0  0  0  0  0  0  0  0
    0.3488   -0.4243    1.4483 H   0  0  0  0  0  0  0  0  0  0  0  0
   -2.6568   -0.1579   -0.5376 H   0  0  0  0  0  0  0  0  0  0  0  0
  1  5  1  0  0  0  0
  1  2  2  0  0  0  0
  2  4  1  0  0  0  0
  3  2  1  0  0  0  0
  5  6  1  0  0  0  0
  6 12  1  0  0  0  0
  6 13  1  0  0  0  0
  7  8  2  0  0  0  0
  7  6  1  0  0  0  0
  8  9  1  0  0  0  0
 10  8  1  0  0  0  0
 11  7  1  0  0  0  0
 14  1  1  0  0  0  0
M  END
