18
CalcUS
C -0.2252 0.4541 -0.0267 -0.141652 -0.056113 0.008901
N -1.5417 0.1565 0.2799 -0.130176 -0.018297 0.08111
C -1.8304 -1.1100 0.5384 -0.119367 -0.001315 0.152677
S -0.3933 -2.0097 0.4079 -0.131217 -0.047244 0.074155
C 0.5635 -0.6321 -0.0029 -0.158571 -0.06734 -0.003254
C -2.5622 1.1981 0.2700 -0.109225 0.003813 0.072045
H 0.0599 1.4709 -0.2483 -0.142047 -0.065885 -0.032825
H 1.6235 -0.6817 -0.1944 -0.170065 -0.102987 -0.057926
H -2.8594 1.4154 -0.7539 -0.163213 -0.080818 0.071106
H -2.1627 2.1016 0.7241 -0.040773 0.023963 -0.031443
H -3.4195 0.8608 0.8433 -0.067061 0.053897 0.170386
C -3.5468 -1.7506 1.4475 0.471448 0.165433 -0.247262
H -3.0214 -2.6617 1.8040 0.239649 0.025134 -0.194764
O -3.9111 -0.8937 2.2656 0.249697 0.060608 -0.120157
C -4.3608 -2.0437 0.2014 0.216271 0.031867 -0.094866
H -5.2812 -2.5545 0.5031 0.279386 0.047432 0.111711
H -4.6493 -1.1305 -0.3208 0.108099 -0.007193 -0.111529
H -3.8295 -2.6963 -0.4924 0.081732 -0.008355 -0.171529
