5
Coordinates from ORCA-job calc
  C   4.29200506855013      3.65887644214651     -0.00144410467885
  H   4.65725853232903      2.62513903536771     -0.00091992250615
  H   4.65820841014958      4.17709239197699      0.89259909450014
  H   4.65603108437639      4.17401314344481     -0.89831448847174
  H   3.19559690459486      3.65887898706397     -0.00092057884341
