5
Coordinates from ORCA-job calc
  C   4.58021365652113      3.64198181643353      0.02731529002686
  H   4.49646412834276      2.54709641502396     -0.07095405889962
  H   4.49689461008142      4.27693769248526      0.92470067081465
  H   4.50411799653668      4.19807852847897     -0.93889019682200
  H   3.38140960851795      3.62990554757823      0.04882829488011
